# generated using pymatgen
data_Ca2TiCrO6
_symmetry_space_group_name_H-M   'P 1'
_cell_length_a   8.00000000
_cell_length_b   8.00000000
_cell_length_c   8.00000000
_cell_angle_alpha   90.00000000
_cell_angle_beta   90.00000000
_cell_angle_gamma   90.00000000
_symmetry_Int_Tables_number   1
_chemical_formula_structural   Ca2TiCrO6
_chemical_formula_sum   'Ca8 Ti4 Cr4 O24'
_cell_volume   512.00000000
_cell_formula_units_Z   4
loop_
 _symmetry_equiv_pos_site_id
 _symmetry_equiv_pos_as_xyz
  1  'x, y, z'
loop_
 _atom_site_type_symbol
 _atom_site_label
 _atom_site_symmetry_multiplicity
 _atom_site_fract_x
 _atom_site_fract_y
 _atom_site_fract_z
 _atom_site_occupancy
  Ca  Ca0  1  0.48751867  0.98030581  0.78800674  1
  Ca  Ca1  1  0.98751867  0.48030581  0.78800674  1
  Ca  Ca2  1  0.48030581  0.48751867  0.78800674  1
  Ca  Ca3  1  0.98030581  0.98751867  0.78800674  1
  Ca  Ca4  1  0.51970277  0.51246608  0.28878694  1
  Ca  Ca5  1  0.01970277  0.01246608  0.28878694  1
  Ca  Ca6  1  0.51246608  0.01970277  0.28878694  1
  Ca  Ca7  1  0.01246608  0.51970277  0.28878694  1
  Ti  Ti8  1  0.74999523  0.25000819  0.53840679  1
  Ti  Ti9  1  0.24999523  0.75000819  0.53840679  1
  Ti  Ti10  1  0.75000819  0.74999523  0.53840679  1
  Ti  Ti11  1  0.25000819  0.24999523  0.53840679  1
  Cr  Cr12  1  0.75000556  0.74998632  0.03841031  1
  Cr  Cr13  1  0.25000556  0.24998632  0.03841031  1
  Cr  Cr14  1  0.74998632  0.25000556  0.03841031  1
  Cr  Cr15  1  0.24998632  0.75000556  0.03841031  1
  O  O16  1  0.71948472  0.28698307  0.78792474  1
  O  O17  1  0.21948472  0.78698307  0.78792474  1
  O  O18  1  0.28698307  0.21948472  0.78792474  1
  O  O19  1  0.78698307  0.71948472  0.78792474  1
  O  O20  1  0.49988892  0.72057733  0.57561355  1
  O  O21  1  0.99988892  0.22057733  0.57561355  1
  O  O22  1  0.22057733  0.49988892  0.57561355  1
  O  O23  1  0.72057733  0.99988892  0.57561355  1
  O  O24  1  0.77941489  0.50010744  0.50116124  1
  O  O25  1  0.27941489  0.00010744  0.50116124  1
  O  O26  1  0.50010744  0.27941489  0.50116124  1
  O  O27  1  0.00010744  0.77941489  0.50116124  1
  O  O28  1  0.71301750  0.78051997  0.28886033  1
  O  O29  1  0.21301750  0.28051997  0.28886033  1
  O  O30  1  0.28051997  0.71301750  0.28886033  1
  O  O31  1  0.78051997  0.21301750  0.28886033  1
  O  O32  1  0.50090700  0.28069165  0.07424160  1
  O  O33  1  0.00090700  0.78069165  0.07424160  1
  O  O34  1  0.78069165  0.50090700  0.07424160  1
  O  O35  1  0.28069165  0.00090700  0.07424160  1
  O  O36  1  0.21931375  0.49910511  0.00253726  1
  O  O37  1  0.71931375  0.99910511  0.00253726  1
  O  O38  1  0.49910511  0.71931375  0.00253726  1
  O  O39  1  0.99910511  0.21931375  0.00253726  1
